/*--------------------------------*- C++ -*----------------------------------*\
  =========                 |
  \\      /  F ield         | OpenFOAM: The Open Source CFD Toolbox
   \\    /   O peration     | Website:  https://openfoam.org
    \\  /    A nd           | Version:  13
     \\/     M anipulation  |
\*---------------------------------------------------------------------------*/
FoamFile
{
    format      binary;
    class       polyBoundaryMesh;
    location    "constant/polyMesh";
    object      boundary;
}
// * * * * * * * * * * * * * * * * * * * * * * * * * * * * * * * * * * * * * //

8
(
    frontAndBack
    {
        type            patch;
        nFaces          47;
        startFace       269409;
    }
    inlet
    {
        type            patch;
        nFaces          0;
        startFace       269456;
    }
    outlet
    {
        type            patch;
        nFaces          0;
        startFace       269456;
    }
    lowerWall
    {
        type            wall;
        inGroups        List<word> 1(wall);
        nFaces          168;
        startFace       269456;
    }
    upperWall
    {
        type            patch;
        nFaces          40;
        startFace       269624;
    }
    BikeWheel
    {
        type            wall;
        inGroups        List<word> 
2
(
BikeWheelGroup
wall
)
;
        nFaces          0;
        startFace       269664;
    }
    procBoundary5to3
    {
        type            processor;
        inGroups        List<word> 1(processor);
        nFaces          2561;
        startFace       269664;
        matchTolerance  0.0001;
        myProcNo        5;
        neighbProcNo    3;
    }
    procBoundary5to4
    {
        type            processor;
        inGroups        List<word> 1(processor);
        nFaces          2662;
        startFace       272225;
        matchTolerance  0.0001;
        myProcNo        5;
        neighbProcNo    4;
    }
)

// ************************************************************************* //
