/*--------------------------------*- C++ -*----------------------------------*\
  =========                 |
  \\      /  F ield         | OpenFOAM: The Open Source CFD Toolbox
   \\    /   O peration     | Website:  https://openfoam.org
    \\  /    A nd           | Version:  13
     \\/     M anipulation  |
\*---------------------------------------------------------------------------*/
FoamFile
{
    format      binary;
    class       polyBoundaryMesh;
    location    "constant/polyMesh";
    object      boundary;
}
// * * * * * * * * * * * * * * * * * * * * * * * * * * * * * * * * * * * * * //

8
(
    frontAndBack
    {
        type            patch;
        nFaces          100;
        startFace       269977;
    }
    inlet
    {
        type            patch;
        nFaces          40;
        startFace       270077;
    }
    outlet
    {
        type            patch;
        nFaces          0;
        startFace       270117;
    }
    lowerWall
    {
        type            wall;
        inGroups        List<word> 1(wall);
        nFaces          0;
        startFace       270117;
    }
    upperWall
    {
        type            patch;
        nFaces          122;
        startFace       270117;
    }
    BikeWheel
    {
        type            wall;
        inGroups        List<word> 
2
(
BikeWheelGroup
wall
)
;
        nFaces          0;
        startFace       270239;
    }
    procBoundary2to0
    {
        type            processor;
        inGroups        List<word> 1(processor);
        nFaces          1779;
        startFace       270239;
        matchTolerance  0.0001;
        myProcNo        2;
        neighbProcNo    0;
    }
    procBoundary2to1
    {
        type            processor;
        inGroups        List<word> 1(processor);
        nFaces          2478;
        startFace       272018;
        matchTolerance  0.0001;
        myProcNo        2;
        neighbProcNo    1;
    }
)

// ************************************************************************* //
